@<TRIPOS>MOLECULE
*****
 265 267 0 0 0
SMALL
GASTEIGER

@<TRIPOS>ATOM
      1 PT         15.1411    7.7349  100.5446 Pt      1  UNL1        0.0000
      2 AG         13.7147    7.1459   98.3708 Ag      1  UNL1        0.0000
      3 AG         12.5200    7.2879  100.7738 Ag      1  UNL1        0.0000
      4 AG         13.5378    9.8448  102.0705 Ag      1  UNL1        0.0000
      5 AG         14.1770    5.2691  100.1741 Ag      1  UNL1        0.0000
      6 AG         16.1014    6.7069   97.1301 Ag      1  UNL1        0.0000
      7 AG         14.3697    7.7834   93.8039 Ag      1  UNL1        0.0000
      8 AG         16.6634    5.2522   99.3356 Ag      1  UNL1        0.0000
      9 AG         15.6326   12.9359  102.5480 Ag      2  UNL2        0.0000
     10 AG         11.1488   11.2543  103.0082 Ag      1  UNL1        0.0000
     11 AG          9.6809    8.3603  102.7762 Ag      1  UNL1        0.0000
     12 S          11.6919    9.1308  103.7331 S.3     1  UNL1        0.0000
     13 S          15.0106    3.2568   99.7500 S.3     1  UNL1        0.0000
     14 S          17.3119    4.4737   96.9536 S.3     1  UNL1        0.0000
     15 S          10.0959    6.8783  100.9889 S.3     1  UNL1        0.0000
     16 S          13.9313    6.6072   95.8845 S.3     1  UNL1        0.0000
     17 S          13.2699   12.5234  100.7000 S.3     3  UNL3        0.0000
     18 S          15.0059   10.7072  104.2054 S.3     4  UNL4        0.0000
     19 P          14.9959    8.7195   91.6403 P.3     1  UNL1        0.0000
     20 P           6.2959    7.9505  102.7610 P.3     5  UNL5        0.0000
     21 C          11.4023    8.8639  105.6416 C.3     1  UNL1        0.0000
     22 C          10.4970   10.0032  106.1294 C.3     1  UNL1        0.0000
     23 H           9.5127    9.9800  105.6930 H       1  UNL1        0.0000
     24 H          10.9547   10.9005  105.7180 H       1  UNL1        0.0000
     25 C          12.7703    9.0692  106.3253 C.3     1  UNL1        0.0000
     26 H          13.1768   10.0434  106.0110 H       1  UNL1        0.0000
     27 H          13.4561    8.2609  105.9939 H       1  UNL1        0.0000
     28 C          10.9144    7.4776  106.2385 C.3     1  UNL1        0.0000
     29 H          11.6128    6.6570  105.9817 H       1  UNL1        0.0000
     30 H           9.9877    7.1082  105.9286 H       1  UNL1        0.0000
     31 C          10.3540   10.0435  107.6729 C.3     1  UNL1        0.0000
     32 H           9.6858   10.8758  107.9811 H       1  UNL1        0.0000
     33 C          11.7430   10.2502  108.3027 C.3     1  UNL1        0.0000
     34 H          12.1732   11.2154  107.9609 H       1  UNL1        0.0000
     35 H          11.6616   10.2921  109.4118 H       1  UNL1        0.0000
     36 C          12.6608    9.0884  107.8781 C.3     1  UNL1        0.0000
     37 H          13.6691    9.2327  108.3130 H       1  UNL1        0.0000
     38 C          12.0716    7.7688  108.4135 C.3     1  UNL1        0.0000
     39 H          12.7249    6.9095  108.1527 H       1  UNL1        0.0000
     40 H          11.9757    7.8001  109.5223 H       1  UNL1        0.0000
     41 C          10.7025    7.5544  107.7789 C.3     1  UNL1        0.0000
     42 H          10.2683    6.6021  108.1651 H       1  UNL1        0.0000
     43 C           9.7505    8.7184  108.1702 C.3     1  UNL1        0.0000
     44 H           8.7332    8.5756  107.7417 H       1  UNL1        0.0000
     45 H           9.6260    8.7619  109.2787 H       1  UNL1        0.0000
     46 C          14.0255    1.7751   99.9257 C.3     1  UNL1        0.0000
     47 C          14.5392    0.8666   98.8076 C.3     1  UNL1        0.0000
     48 H          15.5726    0.5280   99.0432 H       1  UNL1        0.0000
     49 H          14.5682    1.4532   97.8652 H       1  UNL1        0.0000
     50 C          14.1315    1.1211  101.3164 C.3     1  UNL1        0.0000
     51 H          13.7012    1.7632  102.1181 H       1  UNL1        0.0000
     52 H          15.1691    0.8334  101.5813 H       1  UNL1        0.0000
     53 C          12.5706    2.2228   99.6320 C.3     1  UNL1        0.0000
     54 H          12.5694    2.8798   98.7355 H       1  UNL1        0.0000
     55 H          12.1733    2.8412  100.4705 H       1  UNL1        0.0000
     56 C          13.6115   -0.3102   98.5556 C.3     1  UNL1        0.0000
     57 H          -0.4642   25.2575   97.2849 H       6  UNK6        0.0000
     58 C          -1.0626   24.7195   99.8837 C.3     4  UNL4        0.0000
     59 H          -1.7473   23.8991   99.5814 H       4  UNL4        0.0000
     60 H          -0.0731   24.3043  100.1631 H       4  UNL4        0.0000
     61 C          -1.6539   25.4918  101.0447 C.3     4  UNL4        0.0000
     62 H          -1.8543   24.8049  101.8930 H       4  UNL4        0.0000
     63 C          11.3737    0.1614  100.5207 C.3     1  UNL1        0.0000
     64 H          10.9282    0.7545  101.3455 H       1  UNL1        0.0000
     65 H          -4.2272   25.1181  100.1555 H       7  UNK7        0.0000
     66 C          11.6345    1.0482   99.3109 C.3     1  UNL1        0.0000
     67 H          10.6600    1.4545   98.9837 H       1  UNL1        0.0000
     68 C          12.2275    0.2185   98.1685 C.3     1  UNL1        0.0000
     69 H          12.3292    0.8565   97.2607 H       1  UNL1        0.0000
     70 H          -3.0398   25.4016   97.8181 H       8  UNK8        0.0000
     71 C          17.7177    3.0107   95.8211 C.3     1  UNL1        0.0000
     72 C          17.7654    3.4644   94.3301 C.3     1  UNL1        0.0000
     73 H          18.6287    4.1479   94.1632 H       1  UNL1        0.0000
     74 H          16.8438    4.0205   94.0694 H       1  UNL1        0.0000
     75 C          19.0670    2.2636   96.1039 C.3     1  UNL1        0.0000
     76 H          19.1003    1.9041   97.1546 H       1  UNL1        0.0000
     77 H          19.9391    2.9352   95.9451 H       1  UNL1        0.0000
     78 C          16.5694    2.0033   96.0190 C.3     1  UNL1        0.0000
     79 H          15.5965    2.4980   95.8484 H       1  UNL1        0.0000
     80 H          16.6054    1.6440   97.0664 H       1  UNL1        0.0000
     81 C          17.8925    2.2326   93.3868 C.3     1  UNL1        0.0000
     82 H          17.9029    2.5543   92.3255 H       1  UNL1        0.0000
     83 C          19.1995    1.4690   93.6812 C.3     1  UNL1        0.0000
     84 H          20.0793    2.1142   93.4735 H       1  UNL1        0.0000
     85 H          19.2763    0.5790   93.0110 H       1  UNL1        0.0000
     86 C          19.2012    1.0250   95.1566 C.3     1  UNL1        0.0000
     87 H          20.1422    0.4694   95.3640 H       1  UNL1        0.0000
     88 C          18.0144    0.0708   95.3745 C.3     1  UNL1        0.0000
     89 H           3.2046   24.7440   94.3883 H       9  UNK9        0.0000
     90 H           3.1632   25.5234   96.6685 H      10  UNK10       0.0000
     91 C          16.6969    0.8015   95.0716 C.3     1  UNL1        0.0000
     92 H          15.8445    0.1089   95.2386 H       1  UNL1        0.0000
     93 C          16.6915    1.2901   93.6102 C.3     1  UNL1        0.0000
     94 H          16.7533    0.4190   92.9206 H       1  UNL1        0.0000
     95 H          15.7435    1.8274   93.3880 H       1  UNL1        0.0000
     96 C           8.8771    5.7580  100.3049 C.3     1  UNL1        0.0000
     97 C           9.6722    4.8547   99.3553 C.3     1  UNL1        0.0000
     98 H          10.5399    4.4188   99.8925 H       1  UNL1        0.0000
     99 H          10.0668    5.4603   98.5084 H       1  UNL1        0.0000
    100 C           7.7008    6.4018   99.5194 C.3     1  UNL1        0.0000
    101 H           8.0712    7.0057   98.6623 H       1  UNL1        0.0000
    102 H           7.1108    7.0667  100.1775 H       1  UNL1        0.0000
    103 C           8.3202    4.9514  101.4906 C.3     1  UNL1        0.0000
    104 H           9.1515    4.5198  102.0881 H       1  UNL1        0.0000
    105 H           7.7412    5.6188  102.1590 H       1  UNL1        0.0000
    106 C           8.7685    3.7344   98.8399 C.3     1  UNL1        0.0000
    107 H           9.3566    3.0888   98.1621 H       1  UNL1        0.0000
    108 C           7.5867    4.3477   98.0613 C.3     1  UNL1        0.0000
    109 H           7.9652    4.9356   97.1974 H       1  UNL1        0.0000
    110 H           6.9422    3.5345   97.6653 H       1  UNL1        0.0000
    111 C           6.7761    5.2706   98.9952 C.3     1  UNL1        0.0000
    112 H           5.9209    5.7078   98.4333 H       1  UNL1        0.0000
    113 C           6.2378    4.4362  100.1823 C.3     1  UNL1        0.0000
    114 H           5.6326    5.0730  100.8550 H       1  UNL1        0.0000
    115 H           5.5790    3.6213   99.8116 H       1  UNL1        0.0000
    116 C           7.4163    3.8308  100.9721 C.3     1  UNL1        0.0000
    117 H           7.0301    3.2533  101.8392 H       1  UNL1        0.0000
    118 C           8.2488    2.9184  100.0490 C.3     1  UNL1        0.0000
    119 H           9.1065    2.5027  100.6247 H       1  UNL1        0.0000
    120 H           7.6263    2.0725   99.6976 H       1  UNL1        0.0000
    121 C          12.8736    5.3207   95.0709 C.3     1  UNL1        0.0000
    122 C          13.6989    4.4323   94.0985 C.3     1  UNL1        0.0000
    123 H          14.5625    3.9953   94.6271 H       1  UNL1        0.0000
    124 H          14.0923    5.0398   93.2567 H       1  UNL1        0.0000
    125 C          11.6900    5.9349   94.2731 C.3     1  UNL1        0.0000
    126 H          12.0728    6.5603   93.4355 H       1  UNL1        0.0000
    127 H          11.0776    6.5866   94.9315 H       1  UNL1        0.0000
    128 C          12.3162    4.4398   96.2065 C.3     1  UNL1        0.0000
    129 H          11.7244    5.0678   96.9044 H       1  UNL1        0.0000
    130 H          13.1611    3.9947   96.7753 H       1  UNL1        0.0000
    131 C          12.8129    3.2929   93.5306 C.3     1  UNL1        0.0000
    132 H          13.4108    2.6507   92.8470 H       1  UNL1        0.0000
    133 C          11.6282    3.9005   92.7504 C.3     1  UNL1        0.0000
    134 H          12.0043    4.4937   91.8890 H       1  UNL1        0.0000
    135 H          10.9882    3.0859   92.3392 H       1  UNL1        0.0000
    136 C          10.7990    4.7989   93.6962 C.3     1  UNL1        0.0000
    137 H           9.9486    5.2372   93.1292 H       1  UNL1        0.0000
    138 C          10.2512    3.9391   94.8557 C.3     1  UNL1        0.0000
    139 H           9.6381    4.5710   95.5321 H       1  UNL1        0.0000
    140 H           9.5950    3.1327   94.4596 H       1  UNL1        0.0000
    141 C          11.4291    3.3179   95.6361 C.3     1  UNL1        0.0000
    142 H          11.0345    2.7040   96.4712 H       1  UNL1        0.0000
    143 C          12.2715    2.4323   94.6926 C.3     1  UNL1        0.0000
    144 H          11.6454    1.6019   94.2973 H       1  UNL1        0.0000
    145 H          13.1202    1.9776   95.2487 H       1  UNL1        0.0000
    146 C          16.1794    7.6046   90.8873 C.ar    1  UNL1        0.0000
    147 C          16.8338    7.9615   89.7001 C.ar    1  UNL1        0.0000
    148 H          16.6235    8.9091   89.2213 H       1  UNL1        0.0000
    149 C          17.7761    7.0962   89.1316 C.ar    1  UNL1        0.0000
    150 H          18.2881    7.3748   88.2199 H       1  UNL1        0.0000
    151 C          18.0611    5.8721   89.7432 C.ar    1  UNL1        0.0000
    152 H          18.7910    5.2024   89.3061 H       1  UNL1        0.0000
    153 C          17.4046    5.5137   90.9227 C.ar    1  UNL1        0.0000
    154 H          17.6251    4.5701   91.3934 H       1  UNL1        0.0000
    155 C          16.4683    6.3772   91.4968 C.ar    1  UNL1        0.0000
    156 H          15.9742    6.0896   92.4139 H       1  UNL1        0.0000
    157 C           5.1045    8.8975  100.6259 C.3     5  UNL5        0.0000
    158 C           7.4492    9.8503   98.6203 C.3     5  UNL5        0.0000
    159 H           6.7360   11.6619   99.6049 H       5  UNL5        0.0000
    160 C           3.5926    9.6099   98.2839 C.3     5  UNL5        0.0000
    161 H           4.4481    8.9795   97.9429 H       5  UNL5        0.0000
    162 C           2.5591    8.7137   99.0063 C.3     5  UNL5        0.0000
    163 H           2.2113    8.0623   98.1791 H       5  UNL5        0.0000
    164 C           3.0597    7.6795   99.9865 C.2     5  UNL5        0.0000
    165 H           2.4765    6.7722  100.1268 H       5  UNL5        0.0000
    166 C           4.1802    7.7373  100.6748 C.2     5  UNL5        0.0000
    167 H           4.4284    6.8763  101.2759 H       5  UNL5        0.0000
    168 C           6.7220   10.2975  101.6569 C.3     5  UNL5        0.0000
    169 C           6.6685   11.5951  104.3859 C.3    11  UNL11       0.0000
    170 H           7.9160   13.0433  104.7134 H      11  UNL11       0.0000
    171 C           6.6196   14.0817  103.5011 C.3    11  UNL11       0.0000
    172 H           7.4173   14.8626  103.5866 H      11  UNL11       0.0000
    173 C           5.4045   14.8159  103.9333 C.2    11  UNL11       0.0000
    174 H           5.4232   15.3912  104.8573 H      11  UNL11       0.0000
    175 C           4.3027   14.7707  103.2012 C.2    11  UNL11       0.0000
    176 H           4.2882   14.1868  102.2890 H      11  UNL11       0.0000
    177 C           4.3452   11.5762  102.8485 C.3     5  UNL5        0.0000
    178 H           2.5893   10.6483  101.1389 H       5  UNL5        0.0000
    179 C           5.1268    8.6839  105.1715 C.3     5  UNL5        0.0000
    180 C           8.2437    8.1872  104.8663 C.3     6  UNK6        0.0000
    181 H           7.3322    6.3799  104.9509 H       6  UNK6        0.0000
    182 C           5.6321    6.3101  106.6644 C.3     5  UNL5        0.0000
    183 H           6.6197    6.1810  107.1666 H       5  UNL5        0.0000
    184 C           4.6173    6.8810  107.5942 C.2     5  UNL5        0.0000
    185 H           4.4659    6.3827  108.5437 H       5  UNL5        0.0000
    186 C           3.8828    7.9757  107.3163 C.2     5  UNL5        0.0000
    187 H           3.1628    8.2908  108.0610 H       5  UNL5        0.0000
    188 C           3.9013    8.8196  106.0615 C.3     5  UNL5        0.0000
    189 H           3.8660    9.8902  106.3498 H       5  UNL5        0.0000
    190 C           7.5846   11.3210   98.9727 C.3     5  UNL5        0.0000
    191 H           7.6482    9.2175   99.5092 H       5  UNL5        0.0000
    192 C           4.1719   10.8708   98.9554 C.3     5  UNL5        0.0000
    193 H           4.8044   11.3820   98.2023 H       5  UNL5        0.0000
    194 C           3.2406   11.8775   99.5618 C.2     5  UNL5        0.0000
    195 H           3.2034   12.8774   99.1428 H       5  UNL5        0.0000
    196 C           2.5354   11.6182  100.6595 C.2     5  UNL5        0.0000
    197 H           1.9424   12.3985  101.1265 H       5  UNL5        0.0000
    198 C           4.4821   10.0665  102.8357 C.3     5  UNL5        0.0000
    199 H           3.8206   11.8794  103.7872 H       5  UNL5        0.0000
    200 C           5.5640    9.4071  101.9559 C.3     5  UNL5        0.0000
    201 C           7.2736   10.8984  105.5882 C.3    11  UNL11       0.0000
    202 C           6.5549   10.6847  106.8848 C.2    11  UNL11       0.0000
    203 H           6.3957    9.6391  107.1169 H      11  UNL11       0.0000
    204 C           6.1891   11.5423  107.8575 C.2    11  UNL11       0.0000
    205 H           5.7766   11.0687  108.7359 H      11  UNL11       0.0000
    206 C           6.2827   13.0159  107.9810 C.2    11  UNL11       0.0000
    207 H           6.1002   13.4533  108.9489 H      11  UNL11       0.0000
    208 C           6.5365   13.8496  106.9984 C.2    11  UNL11       0.0000
    209 H           6.6156   14.9273  107.0909 H      11  UNL11       0.0000
    210 C           6.8930   13.0460  104.5531 C.3    11  UNL11       0.0000
    211 H           7.3907   11.3462  103.5909 H      11  UNL11       0.0000
    212 C           5.1310    7.5583  104.1519 C.3     5  UNL5        0.0000
    213 C           8.2504    6.7197  104.5337 C.3     6  UNK6        0.0000
    214 H          10.4864    6.1722  103.5298 H      12  UNK12       0.0000
    215 C           5.2142    5.0829  105.8296 C.3     5  UNL5        0.0000
    216 H           5.9555    4.8610  105.0306 H       5  UNL5        0.0000
    217 C           3.8267    5.0757  105.2239 C.2     5  UNL5        0.0000
    218 H           3.2358    4.2312  105.5382 H       5  UNL5        0.0000
    219 C           3.2405    5.9076  104.3279 C.2     5  UNL5        0.0000
    220 H           2.2389    5.6550  104.0047 H       5  UNL5        0.0000
    221 C           3.7787    7.1344  103.6624 C.3     5  UNL5        0.0000
    222 H           3.0575    7.9818  103.6111 H       5  UNL5        0.0000
    223 C          12.3966   13.8822  103.6170 C.1    13  UNL13       0.0000
    224 C          13.8421   17.7296  105.4620 C.3    14  UNL14       0.0000
    225 H          15.5656   17.3091  107.4697 H      15  UNK15       0.0000
    226 H          13.7083   18.5893  106.1323 H       7  UNK7        0.0000
    227 C          15.6250   15.0494  104.8281 C.3     8  UNK8        0.0000
    228 H          14.9240   15.3067  105.6514 H       8  UNK8        0.0000
    229 H          15.6457   13.9451  104.7504 H       8  UNK8        0.0000
    230 C          12.4353   19.1558  103.1512 C.3    16  UNL16       0.0000
    231 H          11.8406   18.8634  104.0418 H       9  UNK9        0.0000
    232 H          13.2819   18.4476  103.0241 H       9  UNK9        0.0000
    233 C          11.7111   14.5587  102.7210 C.2    13  UNL13       0.0000
    234 H          11.0852   14.0147  102.0346 H      13  UNL13       0.0000
    235 C          11.5467   16.0443  102.8154 C.3    13  UNL13       0.0000
    236 H          10.6792   16.4040  102.2275 H      13  UNL13       0.0000
    237 C          11.7322   15.7750  105.6156 C.3    17  UNL17       0.0000
    238 H           8.6499   14.4253  107.8100 H      11  UNL11       0.0000
    239 H          10.7507   15.7312  106.1264 H      10  UNK10       0.0000
    240 C          11.5343   17.1771  108.1835 C.3    18  UNL18       0.0000
    241 H          12.0606   17.9856  108.7349 H      18  UNL18       0.0000
    242 C           9.8219   13.0866  106.4465 C.3    11  UNL11       0.0000
    243 H          10.8114   12.6675  106.6155 H      11  UNL11       0.0000
    244 H          12.3520   14.0988  107.3054 H      18  UNL18       0.0000
    245 C           9.8499   17.9418  105.9751 C.3    18  UNL18       0.0000
    246 H           8.8249   17.7350  106.3457 H      18  UNL18       0.0000
    247 H          10.0539   17.4893  104.9753 H      18  UNL18       0.0000
    248 C          13.0900   13.2466  104.5292 C.2    13  UNL13       0.0000
    249 H          12.6267   12.5684  105.2379 H      13  UNL13       0.0000
    250 C          12.5620   14.5717  108.2804 C.3    18  UNL18       0.0000
    251 H          13.4738   14.0434  108.6387 H      18  UNL18       0.0000
    252 C           9.5791   13.8879  107.7236 C.3    11  UNL11       0.0000
    253 H           9.6641   13.1730  108.5678 H      11  UNL11       0.0000
    254 H          10.2689   14.6953  107.8938 H      11  UNL11       0.0000
    255 C          12.7434   16.1101  108.2330 C.3    18  UNL18       0.0000
    256 H          13.5601   16.3231  107.5322 H      18  UNL18       0.0000
    257 H          13.1772   16.2503  109.2443 H      18  UNL18       0.0000
    258 C           9.9874   13.7534  105.0879 C.3    11  UNL11       0.0000
    259 H          10.0300   12.9934  104.2687 H      11  UNL11       0.0000
    260 H           9.3030   14.5868  104.8184 H      11  UNL11       0.0000
    261 C          15.1636   15.6809  103.5201 C.3     8  UNK8        0.0000
    262 H          15.3683   16.7632  103.4878 H       8  UNK8        0.0000
    263 H          14.0725   15.6211  103.4565 H       8  UNK8        0.0000
    264 C          10.9993   18.1542  107.0217 C.3    18  UNL18       0.0000
    265 H          10.5705   19.0230  107.5636 H      18  UNL18       0.0000
@<TRIPOS>BOND
     1   150   149    1
     2   149   147   ar
     3   149   151   ar
     4   148   147    1
     5   152   151    1
     6   147   146   ar
     7   151   153   ar
     8   146   155   ar
     9   146    19    1
    10   153   154    1
    11   153   155   ar
    12   155   156    1
    13    19     7    1
    14   134   133    1
    15   135   133    1
    16    82    81    1
    17   133   131    1
    18   133   136    1
    19   132   131    1
    20    85    83    1
    21    94    93    1
    22   137   136    1
    23   124   122    1
    24    81    83    1
    25    81    93    1
    26    81    72    1
    27    95    93    1
    28    84    83    1
    29   126   125    1
    30   131   122    1
    31   131   143    1
    32    83    86    1
    33    93    91    1
    34   136   125    1
    35   136   138    1
    36     7    16    1
    37   122   123    1
    38   122   121    1
    39    73    72    1
    40    74    72    1
    41   125   127    1
    42   125   121    1
    43    72    71    1
    44   144   143    1
    45   140   138    1
    46   143   145    1
    47   143   141    1
    48   138   139    1
    49   138   141    1
    50   121    16    1
    51   121   128    1
    52    91    92    1
    53    91    88    1
    54    91    78    1
    55    86    87    1
    56    86    88    1
    57    86    75    1
    58    16     6    1
    59    16     2    1
    60   141   128    1
    61   141   142    1
    62    71    78    1
    63    71    75    1
    64    71    14    1
    65    79    78    1
    66    77    75    1
    67    78    80    1
    68    75    76    1
    69   128   130    1
    70   128   129    1
    71     6    14    1
    72     6     2    1
    73     6     8    1
    74    14     8    1
    75    69    68    1
    76   109   108    1
    77   110   108    1
    78     2     3    1
    79     2     5    1
    80     2     1    1
    81   108   106    1
    82   108   111    1
    83    68    56    1
    84    68    66    1
    85    49    47    1
    86   107   106    1
    87   112   111    1
    88    56    47    1
    89   161   160    1
    90    99    97    1
    91   101   100    1
    92     8     5    1
    93     8    13    1
    94   193   192    1
    95    54    53    1
    96   163   162    1
    97    47    48    1
    98    47    46    1
    99   106    97    1
   100   106   118    1
   101    67    66    1
   102   111   100    1
   103   111   113    1
   104    66    53    1
   105    66    63    1
   106   160   162    1
   107   160   192    1
   108    97    98    1
   109    97    96    1
   110    59    58    1
   111   100   102    1
   112   100    96    1
   113   195   194    1
   114   162   164    1
   115    53    46    1
   116    53    55    1
   117    58    60    1
   118    58    61    1
   119   120   118    1
   120   192   194    1
   121   115   113    1
   122    46    13    1
   123    46    50    1
   124   118   119    1
   125   118   116    1
   126   113   114    1
   127   113   116    1
   128   194   196    2
   129     3     5    1
   130     3     1    1
   131     3    15    1
   132     3     4    1
   133     5     1    1
   134     5    13    1
   135     1     4    1
   136   159   190    1
   137    96    15    1
   138    96   103    1
   139   191   158    1
   140   158   190    1
   141    63    64    1
   142    61    62    1
   143   164   165    1
   144   164   166    2
   145    15    11    1
   146   116   103    1
   147   116   117    1
   148    50    52    1
   149    50    51    1
   150   103   104    1
   151   103   105    1
   152   196   197    1
   153   196   178    1
   154   157   166    1
   155   157   200    1
   156   166   167    1
   157   200   198    1
   158   200    20    1
   159   200   168    1
   160    11    12    1
   161   198   177    1
   162     4    10    1
   163     4    12    1
   164   234   233    1
   165   176   175    1
   166   177   199    1
   167    10    12    1
   168   236   235    1
   169   175   173    2
   170    20   212    1
   171   222   221    1
   172   233   235    1
   173   233   223    2
   174   221   212    1
   175   221   219    1
   176   211   169    1
   177   232   230    1
   178   212   179    1
   179    12    21    1
   180   173   174    1
   181   173   171    1
   182   263   261    1
   183   260   258    1
   184   169   210    1
   185   169   201    1
   186   220   219    1
   187   219   217    2
   188   262   261    1
   189   213   181    1
   190   213   180    1
   191   171   210    1
   192   171   172    1
   193   170   210    1
   194   230   231    1
   195   179   188    1
   196   229   227    1
   197   261   227    1
   198   247   245    1
   199   259   258    1
   200   258   242    1
   201   223   248    2
   202   217   215    1
   203   217   218    1
   204   201   202    1
   205   215   216    1
   206   215   182    1
   207   189   188    1
   208   245   246    1
   209   245   264    1
   210   188   186    1
   211   227   228    1
   212   243   242    1
   213   209   208    1
   214   208   206    2
   215    21    22    1
   216    21    28    1
   217    21    25    1
   218   249   248    1
   219   242   252    1
   220   224   226    1
   221    23    22    1
   222    29    28    1
   223    30    28    1
   224    24    22    1
   225    26    25    1
   226    27    25    1
   227   202   203    1
   228   202   204    2
   229   182   183    1
   230   182   184    1
   231   264   265    1
   232   264   240    1
   233   237   239    1
   234    22    31    1
   235    28    41    1
   236    25    36    1
   237   186   184    2
   238   186   187    1
   239   244   250    1
   240   184   185    1
   241   238   252    1
   242   240   255    1
   243   240   241    1
   244   206   204    1
   245   206   207    1
   246   204   205    1
   247   253   252    1
   248   255   250    1
   249   255   256    1
   250   255   257    1
   251   250   251    1
   252   252   254    1
   253    31    32    1
   254    31    43    1
   255    31    33    1
   256    41    42    1
   257    41    43    1
   258    41    38    1
   259    36    37    1
   260    36    38    1
   261    36    33    1
   262    44    43    1
   263    39    38    1
   264    34    33    1
   265    43    45    1
   266    38    40    1
   267    33    35    1
