@<TRIPOS>MOLECULE
*****
 265 272 0 0 0
SMALL
GASTEIGER

@<TRIPOS>ATOM
      1 PT         14.8669    7.8952  101.0405 Pt      1  UNL1        0.0000
      2 AG         13.8596    7.0276   98.3885 Ag      1  UNL1        0.0000
      3 AG         12.3856    7.6576  100.8422 Ag      1  UNL1        0.0000
      4 AG         13.0333    9.4284  102.9271 Ag      1  UNL1        0.0000
      5 AG         14.2645    5.5563  100.5247 Ag      1  UNL1        0.0000
      6 AG         16.1112    6.6223   96.9194 Ag      1  UNL1        0.0000
      7 AG         14.3644    7.7717   93.8223 Ag      1  UNL1        0.0000
      8 AG         16.0631    5.5972   99.3136 Ag      1  UNL1        0.0000
      9 AG         15.4813   12.4934  102.5333 Ag      1  UNL1        0.0000
     10 AG         11.1724   11.1915  102.4053 Ag      1  UNL1        0.0000
     11 AG          9.9952    8.4727  102.9658 Ag      1  UNL1        0.0000
     12 S          12.1899    8.7601  103.8130 S.3     1  UNL1        0.0000
     13 S          15.0412    3.2809   99.7143 S.3     1  UNL1        0.0000
     14 S          17.2093    4.4569   97.1041 S.3     1  UNL1        0.0000
     15 S          10.0024    7.0938  100.9530 S.3     1  UNL1        0.0000
     16 S          13.9488    6.5332   95.8755 S.3     1  UNL1        0.0000
     17 S          13.3234   12.4384  100.5340 S.3     2  UNL2        0.0000
     18 S          14.9868   10.5449  103.9115 S.3     1  UNL1        0.0000
     19 P          15.0046    8.7259   91.6648 P.3     1  UNL1        0.0000
     20 P           6.2128    7.8970  102.7346 P.3     3  UNL3        0.0000
     21 C          11.6438    8.7826  105.6512 C.3     1  UNL1        0.0000
     22 C          10.6523    9.9331  106.0164 C.3     1  UNL1        0.0000
     23 H           9.6729    9.8410  105.5361 H       1  UNL1        0.0000
     24 H          11.0775   10.8682  105.6256 H       1  UNL1        0.0000
     25 C          12.9492    9.0579  106.4093 C.3     1  UNL1        0.0000
     26 H          13.3555   10.0331  106.0741 H       1  UNL1        0.0000
     27 H          13.6744    8.2578  106.1543 H       1  UNL1        0.0000
     28 C          11.0839    7.4342  106.2216 C.3     1  UNL1        0.0000
     29 H          11.7781    6.5988  106.0106 H       1  UNL1        0.0000
     30 H          10.1552    7.1408  105.8010 H       1  UNL1        0.0000
     31 C          10.4223   10.0048  107.5651 C.3     1  UNL1        0.0000
     32 H           9.7167   10.8202  107.8358 H       1  UNL1        0.0000
     33 C          11.7684   10.2548  108.2767 C.3     1  UNL1        0.0000
     34 H          12.2016   11.2234  107.9503 H       1  UNL1        0.0000
     35 H          11.6238   10.3096  109.3792 H       1  UNL1        0.0000
     36 C          12.7359    9.1080  107.9363 C.3     1  UNL1        0.0000
     37 H          13.7141    9.2855  108.4247 H       1  UNL1        0.0000
     38 C          12.1450    7.7753  108.4408 C.3     1  UNL1        0.0000
     39 H          12.8319    6.9331  108.2091 H       1  UNL1        0.0000
     40 H          12.0013    7.8094  109.5422 H       1  UNL1        0.0000
     41 C          10.8046    7.5276  107.7441 C.3     1  UNL1        0.0000
     42 H          10.3640    6.5737  108.1134 H       1  UNL1        0.0000
     43 C           9.8232    8.6807  108.0722 C.3     1  UNL1        0.0000
     44 H           8.8248    8.5103  107.6115 H       1  UNL1        0.0000
     45 H           9.6596    8.7398  109.1759 H       1  UNL1        0.0000
     46 C          14.0518    1.7573   99.8486 C.3     1  UNL1        0.0000
     47 C          14.5249    0.8008   98.7473 C.3     1  UNL1        0.0000
     48 H          15.5539    0.4412   98.9673 H       1  UNL1        0.0000
     49 H          14.5279    1.3540   97.7897 H       1  UNL1        0.0000
     50 C          14.1702    1.1236  101.2474 C.3     1  UNL1        0.0000
     51 H          13.7764    1.7958  102.0421 H       1  UNL1        0.0000
     52 H          15.2119    0.8332  101.4963 H       1  UNL1        0.0000
     53 C          12.5852    2.1880   99.5873 C.3     1  UNL1        0.0000
     54 H          12.5687    2.8165   98.6744 H       1  UNL1        0.0000
     55 H          12.2107    2.8255  100.4201 H       1  UNL1        0.0000
     56 C          13.5778   -0.3806   98.5628 C.3     1  UNL1        0.0000
     57 H          -0.4472   25.2670   97.2365 H       4  UNK4        0.0000
     58 C          -1.0523   24.7175   99.8970 C.3     2  UNL2        0.0000
     59 H          -1.7449   23.9062   99.5887 H       2  UNL2        0.0000
     60 H          -0.0715   24.2871  100.1850 H       2  UNL2        0.0000
     61 C          -1.6426   25.4913  101.0579 C.3     2  UNL2        0.0000
     62 H          -1.8353   24.8072  101.9104 H       2  UNL2        0.0000
     63 C          11.3784    0.1567  100.5607 C.3     1  UNL1        0.0000
     64 H          10.9187    0.7658  101.3657 H       1  UNL1        0.0000
     65 H          -4.2729   25.1117  100.1467 H       5  UNK5        0.0000
     66 C          11.6289    1.0083   99.3226 C.3     1  UNL1        0.0000
     67 H          10.6494    1.4122   99.0030 H       1  UNL1        0.0000
     68 C          12.1844    0.1361   98.1950 C.3     1  UNL1        0.0000
     69 H          12.2563    0.7349   97.2582 H       1  UNL1        0.0000
     70 H          -3.0544   25.4087   97.8017 H       6  UNK6        0.0000
     71 C          17.6551    3.0346   95.8931 C.3     1  UNL1        0.0000
     72 C          17.7061    3.5001   94.3949 C.3     1  UNL1        0.0000
     73 H          18.5562    4.2008   94.2327 H       1  UNL1        0.0000
     74 H          16.7792    4.0367   94.1184 H       1  UNL1        0.0000
     75 C          19.0182    2.3104   96.1677 C.3     1  UNL1        0.0000
     76 H          19.0545    1.9426   97.2138 H       1  UNL1        0.0000
     77 H          19.8743    3.0049   96.0171 H       1  UNL1        0.0000
     78 C          16.5296    1.9973   96.0511 C.3     1  UNL1        0.0000
     79 H          15.5491    2.4731   95.8716 H       1  UNL1        0.0000
     80 H          16.5651    1.6268   97.0921 H       1  UNL1        0.0000
     81 C          17.8737    2.2751   93.4371 C.3     1  UNL1        0.0000
     82 H          17.8894    2.5990   92.3758 H       1  UNL1        0.0000
     83 C          19.1934    1.5356   93.7367 C.3     1  UNL1        0.0000
     84 H          20.0627    2.1968   93.5371 H       1  UNL1        0.0000
     85 H          19.2948    0.6489   93.0632 H       1  UNL1        0.0000
     86 C          19.1898    1.0837   95.2093 C.3     1  UNL1        0.0000
     87 H          20.1412    0.5482   95.4216 H       1  UNL1        0.0000
     88 C          18.0233    0.1017   95.4076 C.3     1  UNL1        0.0000
     89 H           3.2049   24.7353   94.3629 H       7  UNK7        0.0000
     90 H           3.1617   25.5321   96.6945 H       8  UNK8        0.0000
     91 C          16.6943    0.8057   95.0939 C.3     1  UNL1        0.0000
     92 H          15.8561    0.0924   95.2447 H       1  UNL1        0.0000
     93 C          16.6947    1.3012   93.6356 C.3     1  UNL1        0.0000
     94 H          16.7878    0.4343   92.9421 H       1  UNL1        0.0000
     95 H          15.7368    1.8140   93.4002 H       1  UNL1        0.0000
     96 C           8.8861    5.7872  100.3073 C.3     1  UNL1        0.0000
     97 C           9.6880    4.8617   99.3641 C.3     1  UNL1        0.0000
     98 H          10.5513    4.4211   99.9053 H       1  UNL1        0.0000
     99 H          10.0858    5.4523   98.5123 H       1  UNL1        0.0000
    100 C           7.7060    6.3957   99.5186 C.3     1  UNL1        0.0000
    101 H           8.0875    6.9940   98.6633 H       1  UNL1        0.0000
    102 H           7.1251    7.0681  100.1749 H       1  UNL1        0.0000
    103 C           8.3434    4.9417  101.4870 C.3     1  UNL1        0.0000
    104 H           9.1808    4.5020  102.0722 H       1  UNL1        0.0000
    105 H           7.7525    5.5817  102.1644 H       1  UNL1        0.0000
    106 C           8.7746    3.7331   98.8341 C.3     1  UNL1        0.0000
    107 H           9.3505    3.0798   98.1498 H       1  UNL1        0.0000
    108 C           7.5887    4.3472   98.0592 C.3     1  UNL1        0.0000
    109 H           7.9622    4.9329   97.1927 H       1  UNL1        0.0000
    110 H           6.9340    3.5393   97.6645 H       1  UNL1        0.0000
    111 C           6.7840    5.2677   98.9981 C.3     1  UNL1        0.0000
    112 H           5.9314    5.7139   98.4412 H       1  UNL1        0.0000
    113 C           6.2473    4.4343  100.1842 C.3     1  UNL1        0.0000
    114 H           5.6516    5.0737  100.8650 H       1  UNL1        0.0000
    115 H           5.5769    3.6294   99.8098 H       1  UNL1        0.0000
    116 C           7.4295    3.8171  100.9613 C.3     1  UNL1        0.0000
    117 H           7.0392    3.2250  101.8183 H       1  UNL1        0.0000
    118 C           8.2432    2.9031  100.0254 C.3     1  UNL1        0.0000
    119 H           9.0903    2.4559  100.5900 H       1  UNL1        0.0000
    120 H           7.6038    2.0709   99.6591 H       1  UNL1        0.0000
    121 C          12.8774    5.2867   95.0845 C.3     1  UNL1        0.0000
    122 C          13.7014    4.4170   94.1091 C.3     1  UNL1        0.0000
    123 H          14.5602    3.9769   94.6404 H       1  UNL1        0.0000
    124 H          14.1002    5.0403   93.2805 H       1  UNL1        0.0000
    125 C          11.7002    5.9295   94.3022 C.3     1  UNL1        0.0000
    126 H          12.0861    6.5676   93.4757 H       1  UNL1        0.0000
    127 H          11.0938    6.5770   94.9723 H       1  UNL1        0.0000
    128 C          12.3159    4.4109   96.2188 C.3     1  UNL1        0.0000
    129 H          11.7282    5.0403   96.9201 H       1  UNL1        0.0000
    130 H          13.1583    3.9600   96.7859 H       1  UNL1        0.0000
    131 C          12.8140    3.2929   93.5311 C.3     1  UNL1        0.0000
    132 H          13.4150    2.6599   92.8431 H       1  UNL1        0.0000
    133 C          11.6348    3.9193   92.7563 C.3     1  UNL1        0.0000
    134 H          12.0183    4.5255   91.9069 H       1  UNL1        0.0000
    135 H          10.9940    3.1141   92.3318 H       1  UNL1        0.0000
    136 C          10.8048    4.8086   93.7109 C.3     1  UNL1        0.0000
    137 H           9.9585    5.2604   93.1485 H       1  UNL1        0.0000
    138 C          10.2515    3.9377   94.8600 C.3     1  UNL1        0.0000
    139 H           9.6398    4.5654   95.5420 H       1  UNL1        0.0000
    140 H           9.5930    3.1398   94.4524 H       1  UNL1        0.0000
    141 C          11.4247    3.3012   95.6370 C.3     1  UNL1        0.0000
    142 H          11.0271    2.6804   96.4658 H       1  UNL1        0.0000
    143 C          12.2681    2.4240   94.6863 C.3     1  UNL1        0.0000
    144 H          11.6428    1.5996   94.2812 H       1  UNL1        0.0000
    145 H          13.1141    1.9648   95.2439 H       1  UNL1        0.0000
    146 C          16.1848    7.6153   90.8976 C.ar    1  UNL1        0.0000
    147 C          16.8281    7.9706   89.7027 C.ar    1  UNL1        0.0000
    148 H          16.6139    8.9172   89.2235 H       1  UNL1        0.0000
    149 C          17.7640    7.1031   89.1255 C.ar    1  UNL1        0.0000
    150 H          18.2669    7.3784   88.2075 H       1  UNL1        0.0000
    151 C          18.0541    5.8797   89.7363 C.ar    1  UNL1        0.0000
    152 H          18.7783    5.2078   89.2930 H       1  UNL1        0.0000
    153 C          17.4099    5.5244   90.9233 C.ar    1  UNL1        0.0000
    154 H          17.6342    4.5821   91.3938 H       1  UNL1        0.0000
    155 C          16.4799    6.3891   91.5053 C.ar    1  UNL1        0.0000
    156 H          15.9945    6.1034   92.4277 H       1  UNL1        0.0000
    157 C           5.0757    8.8643  100.5391 C.3     3  UNL3        0.0000
    158 C           7.5142    9.8939   98.5232 C.3     3  UNL3        0.0000
    159 H           6.8102   11.7113   99.4853 H       3  UNL3        0.0000
    160 C           3.5164    9.6555   98.1963 C.3     3  UNL3        0.0000
    161 H           4.3360    9.0058   97.8108 H       3  UNL3        0.0000
    162 C           2.4738    8.7940   98.9376 C.3     3  UNL3        0.0000
    163 H           2.0242    8.1937   98.1213 H       3  UNL3        0.0000
    164 C           2.9701    7.7284   99.8889 C.2     3  UNL3        0.0000
    165 H           2.3531    6.8428  100.0188 H       3  UNL3        0.0000
    166 C           4.1027    7.7387  100.5743 C.2     3  UNL3        0.0000
    167 H           4.3250    6.8656  101.1721 H       3  UNL3        0.0000
    168 C           6.6626   10.2988  101.6271 C.3     3  UNL3        0.0000
    169 C           6.6333   11.6148  104.5217 C.3     9  UNL9        0.0000
    170 H           7.9152   13.1350  104.6613 H       9  UNL9        0.0000
    171 C           6.5010   14.0141  103.4453 C.3     9  UNL9        0.0000
    172 H           7.3152   14.7762  103.3566 H       9  UNL9        0.0000
    173 C           5.3117   14.7989  103.8756 C.2     9  UNL9        0.0000
    174 H           5.3491   15.3774  104.7971 H       9  UNL9        0.0000
    175 C           4.2158   14.8151  103.1300 C.2     9  UNL9        0.0000
    176 H           4.1832   14.2516  102.2049 H       9  UNL9        0.0000
    177 C           4.3352   11.5368  102.7460 C.3     3  UNL3        0.0000
    178 H           2.4330   10.6063  101.0111 H       3  UNL3        0.0000
    179 C           5.0818    8.6817  105.1616 C.3     3  UNL3        0.0000
    180 C           8.5113    8.0610  104.4134 C.3     1  UNL1        0.0000
    181 H           7.4219    6.3552  105.0182 H       1  UNL1        0.0000
    182 C           5.5675    6.2977  106.6640 C.3     3  UNL3        0.0000
    183 H           6.5561    6.1795  107.1601 H       3  UNL3        0.0000
    184 C           4.5546    6.8415  107.6029 C.2     3  UNL3        0.0000
    185 H           4.3844    6.3099  108.5327 H       3  UNL3        0.0000
    186 C           3.8295    7.9414  107.3361 C.2     3  UNL3        0.0000
    187 H           3.0949    8.2338  108.0778 H       3  UNL3        0.0000
    188 C           3.8785    8.8172  106.0983 C.3     3  UNL3        0.0000
    189 H           3.8788    9.8750  106.4299 H       3  UNL3        0.0000
    190 C           7.6508   11.3698   98.8449 C.3     3  UNL3        0.0000
    191 H           7.6936    9.2855   99.4328 H       3  UNL3        0.0000
    192 C           4.1300   10.8780   98.9009 C.3     3  UNL3        0.0000
    193 H           4.7722   11.3960   98.1596 H       3  UNL3        0.0000
    194 C           3.1861   11.8765   99.5037 C.2     3  UNL3        0.0000
    195 H           3.1746   12.8866   99.1086 H       3  UNL3        0.0000
    196 C           2.4187   11.5898  100.5553 C.2     3  UNL3        0.0000
    197 H           1.7975   12.3590  101.0015 H       3  UNL3        0.0000
    198 C           4.3936   10.0201  102.7277 C.3     3  UNL3        0.0000
    199 H           3.7953   11.8652  103.6626 H       3  UNL3        0.0000
    200 C           5.5082    9.3681  101.8909 C.3     3  UNL3        0.0000
    201 C           7.3306   10.9912  105.7232 C.3     9  UNL9        0.0000
    202 C           6.5667   10.7027  106.9816 C.2     9  UNL9        0.0000
    203 H           6.4356    9.6448  107.1769 H       9  UNL9        0.0000
    204 C           6.1312   11.5323  107.9538 C.2     9  UNL9        0.0000
    205 H           5.6992   11.0400  108.8147 H       9  UNL9        0.0000
    206 C           6.1720   13.0093  108.0825 C.2     9  UNL9        0.0000
    207 H           5.9620   13.4376  109.0526 H       9  UNL9        0.0000
    208 C           6.3900   13.8537  107.0949 C.2     9  UNL9        0.0000
    209 H           6.4050   14.9316  107.2257 H       9  UNL9        0.0000
    210 C           6.8673   13.0931  104.5836 C.3     9  UNL9        0.0000
    211 H           7.2788   11.2952  103.6852 H       9  UNL9        0.0000
    212 C           5.0860    7.5247  104.1620 C.3     3  UNL3        0.0000
    213 C           8.3283    6.5614  104.4607 C.3     1  UNL1        0.0000
    214 H          10.6754    6.0681  103.5386 H      10  UNK10       0.0000
    215 C           5.1399    5.0420  105.8956 C.3     3  UNL3        0.0000
    216 H           5.8763    4.8133  105.0967 H       3  UNL3        0.0000
    217 C           3.7444    5.0359  105.3061 C.2     3  UNL3        0.0000
    218 H           3.1276    4.2190  105.6555 H       3  UNL3        0.0000
    219 C           3.1786    5.8543  104.3861 C.2     3  UNL3        0.0000
    220 H           2.1708    5.6083  104.0730 H       3  UNL3        0.0000
    221 C           3.7368    7.0592  103.6834 C.3     3  UNL3        0.0000
    222 H           3.0158    7.9032  103.6442 H       3  UNL3        0.0000
    223 C          12.3862   13.8337  103.4352 C.1    11  UNL11       0.0000
    224 C          14.0635   17.9889  105.4604 C.3    12  UNL12       0.0000
    225 H          15.6888   17.3247  107.5236 H      13  UNK13       0.0000
    226 H          13.6980   18.7067  106.2133 H       4  UNK4        0.0000
    227 C          15.6964   15.0540  104.8239 C.3     5  UNK5        0.0000
    228 H          15.0267   15.3762  105.6499 H       5  UNK5        0.0000
    229 H          15.6399   13.9514  104.7314 H       5  UNK5        0.0000
    230 C          12.4063   19.2030  103.0915 C.3    14  UNL14       0.0000
    231 H          11.8302   18.9035  103.9915 H       6  UNK6        0.0000
    232 H          13.2452   18.4915  102.9393 H       6  UNK6        0.0000
    233 C          11.6578   14.5096  102.5830 C.2    11  UNL11       0.0000
    234 H          10.9884   13.9678  101.9329 H      11  UNL11       0.0000
    235 C          11.5601   15.9970  102.6624 C.3    11  UNL11       0.0000
    236 H          10.6870   16.3720  102.0952 H      11  UNL11       0.0000
    237 C          12.0315   15.8629  105.4738 C.3    15  UNL15       0.0000
    238 H           8.6043   14.4698  107.7004 H       8  UNK8        0.0000
    239 H          11.1221   15.7358  106.0890 H       7  UNK7        0.0000
    240 C          11.4891   17.1868  108.2982 C.3    16  UNL16       0.0000
    241 H          11.8741   17.9646  108.9936 H      16  UNL16       0.0000
    242 C           9.8507   13.0823  106.5474 C.3     8  UNK8        0.0000
    243 H          10.8210   12.6119  106.7426 H       8  UNK8        0.0000
    244 H          12.3472   14.2386  107.3401 H      16  UNL16       0.0000
    245 C           9.9170   17.8666  106.1621 C.3    16  UNL16       0.0000
    246 H           8.9052   17.6891  106.5792 H      16  UNL16       0.0000
    247 H          10.1123   17.5078  105.1260 H      16  UNL16       0.0000
    248 C          13.1119   13.1560  104.2846 C.2    11  UNL11       0.0000
    249 H          12.6593   12.6257  105.1157 H      11  UNL11       0.0000
    250 C          12.5965   14.6971  108.3140 C.3    16  UNL16       0.0000
    251 H          13.5290   14.1849  108.6359 H      16  UNL16       0.0000
    252 C           9.5486   13.9419  107.7620 C.3     8  UNK8        0.0000
    253 H           9.5615   13.2817  108.6551 H       8  UNK8        0.0000
    254 H          10.2514   14.7546  107.8990 H       8  UNK8        0.0000
    255 C          12.7611   16.2326  108.2893 C.3    16  UNL16       0.0000
    256 H          13.5337   16.5190  107.5591 H      16  UNL16       0.0000
    257 H          13.2305   16.3753  109.2852 H      16  UNL16       0.0000
    258 C          10.0397   13.7966  105.2284 C.3     8  UNK8        0.0000
    259 H          10.0733   13.0446  104.4034 H       8  UNK8        0.0000
    260 H           9.3101   14.6082  105.0148 H       8  UNK8        0.0000
    261 C          15.2881   15.7191  103.5192 C.3     5  UNK5        0.0000
    262 H          15.4923   16.8050  103.5485 H       5  UNK5        0.0000
    263 H          14.2038   15.6000  103.3592 H       5  UNK5        0.0000
    264 C          11.1000   18.1668  107.1175 C.3    16  UNL16       0.0000
    265 H          10.7188   19.0950  107.6005 H      16  UNL16       0.0000
@<TRIPOS>BOND
     1   150   149    1
     2   149   147   ar
     3   149   151   ar
     4   148   147    1
     5   152   151    1
     6   147   146   ar
     7   151   153   ar
     8   146   155   ar
     9   146    19    1
    10   153   154    1
    11   153   155   ar
    12   155   156    1
    13    19     7    1
    14   134   133    1
    15    82    81    1
    16   135   133    1
    17   133   131    1
    18   133   136    1
    19   132   131    1
    20    94    93    1
    21    85    83    1
    22   137   136    1
    23   124   122    1
    24    81    93    1
    25    81    83    1
    26    81    72    1
    27    95    93    1
    28   126   125    1
    29    84    83    1
    30   131   122    1
    31   131   143    1
    32    93    91    1
    33    83    86    1
    34   136   125    1
    35   136   138    1
    36     7    16    1
    37    74    72    1
    38   122   123    1
    39   122   121    1
    40    73    72    1
    41   125   127    1
    42   125   121    1
    43   144   143    1
    44    72    71    1
    45   140   138    1
    46   143   145    1
    47   143   141    1
    48   138   139    1
    49   138   141    1
    50   121    16    1
    51   121   128    1
    52    91    92    1
    53    91    88    1
    54    91    78    1
    55    86    87    1
    56    86    88    1
    57    86    75    1
    58   141   128    1
    59   141   142    1
    60    71    78    1
    61    71    75    1
    62    71    14    1
    63    79    78    1
    64    16     6    1
    65    16     2    1
    66    77    75    1
    67    78    80    1
    68    75    76    1
    69   128   130    1
    70   128   129    1
    71    14     6    1
    72    14     8    1
    73     6     2    1
    74     6     8    1
    75   109   108    1
    76    69    68    1
    77   110   108    1
    78    49    47    1
    79   161   160    1
    80   108   106    1
    81   108   111    1
    82   107   106    1
    83    68    56    1
    84    68    66    1
    85   163   162    1
    86   193   192    1
    87   160   192    1
    88   160   162    1
    89     2     5    1
    90     2     1    1
    91     2     3    1
    92   112   111    1
    93    99    97    1
    94    56    47    1
    95   158   190    1
    96   158   191    1
    97   101   100    1
    98    54    53    1
    99    47    48    1
   100    47    46    1
   101   106    97    1
   102   106   118    1
   103   192   194    1
   104   190   159    1
   105    67    66    1
   106   111   100    1
   107   111   113    1
   108   162   164    1
   109   195   194    1
   110    66    53    1
   111    66    63    1
   112     8    13    1
   113     8     5    1
   114     8     1    1
   115    97    98    1
   116    97    96    1
   117   100   102    1
   118   100    96    1
   119   194   196    2
   120    59    58    1
   121    53    46    1
   122    53    55    1
   123   120   118    1
   124    13    46    1
   125    13     5    1
   126   115   113    1
   127    58    60    1
   128    58    61    1
   129    46    50    1
   130   164   165    1
   131   164   166    2
   132   118   119    1
   133   118   116    1
   134     5     1    1
   135     5     3    1
   136   113   114    1
   137   113   116    1
   138    96    15    1
   139    96   103    1
   140    63    64    1
   141     1     3    1
   142     1     4    1
   143   157   166    1
   144   157   200    1
   145   196   197    1
   146   196   178    1
   147   166   167    1
   148     3    15    1
   149     3     4    1
   150   116   103    1
   151   116   117    1
   152    15    11    1
   153    61    62    1
   154    50    52    1
   155    50    51    1
   156   103   104    1
   157   103   105    1
   158   168   200    1
   159   200    20    1
   160   200   198    1
   161   234   233    1
   162     4    10    1
   163     4    12    1
   164     4    18    1
   165   236   235    1
   166   176   175    1
   167     9    18    1
   168   233   235    1
   169   233   223    2
   170    20   212    1
   171    11    10    1
   172    11    12    1
   173    11   180    1
   174   198   177    1
   175   177   199    1
   176    10    12    1
   177   232   230    1
   178   230   231    1
   179   175   173    2
   180   263   261    1
   181   262   261    1
   182   171   172    1
   183   171   173    1
   184   171   210    1
   185   261   227    1
   186   211   169    1
   187   222   221    1
   188   223   248    2
   189   221   212    1
   190   221   219    1
   191    12    21    1
   192   173   174    1
   193   220   219    1
   194   212   179    1
   195   259   258    1
   196   219   217    2
   197   169   210    1
   198   169   201    1
   199   248   249    1
   200   213   180    1
   201   213   181    1
   202   210   170    1
   203   229   227    1
   204   260   258    1
   205   227   228    1
   206   247   245    1
   207   216   215    1
   208   258   242    1
   209   179   188    1
   210   217   218    1
   211   217   215    1
   212   224   226    1
   213   201   202    1
   214   237   239    1
   215    21    22    1
   216    21    28    1
   217    21    25    1
   218    23    22    1
   219    24    22    1
   220   215   182    1
   221    30    28    1
   222   245   246    1
   223   245   264    1
   224    29    28    1
   225    27    25    1
   226    26    25    1
   227   188   189    1
   228   188   186    1
   229    22    31    1
   230    28    41    1
   231    25    36    1
   232   242   243    1
   233   242   252    1
   234   182   183    1
   235   182   184    1
   236   202   203    1
   237   202   204    2
   238   208   209    1
   239   208   206    2
   240   264   265    1
   241   264   240    1
   242   244   250    1
   243   186   184    2
   244   186   187    1
   245   256   255    1
   246   184   185    1
   247    31    32    1
   248    31    43    1
   249    31    33    1
   250   252   238    1
   251   252   254    1
   252   252   253    1
   253    44    43    1
   254    41    42    1
   255    41    43    1
   256    41    38    1
   257   204   206    1
   258   204   205    1
   259    36    33    1
   260    36    37    1
   261    36    38    1
   262    34    33    1
   263   206   207    1
   264    39    38    1
   265    43    45    1
   266   240   255    1
   267   240   241    1
   268   255   250    1
   269   255   257    1
   270   250   251    1
   271    33    35    1
   272    38    40    1
