@<TRIPOS>MOLECULE
*****
 265 270 0 0 0
SMALL
GASTEIGER

@<TRIPOS>ATOM
      1 PT         15.1131    7.7492  100.5307 Pt      1  UNL1        0.0000
      2 AU         13.7297    7.1277   98.3413 Au      1  UNL1        0.0000
      3 AU         12.4974    7.2748  100.7203 Au      1  UNL1        0.0000
      4 AU         13.4695    9.8368  102.0346 Au      1  UNL1        0.0000
      5 AU         14.1808    5.2746  100.1654 Au      1  UNL1        0.0000
      6 AU         16.1179    6.6932   97.1094 Au      1  UNL1        0.0000
      7 AU         14.3439    7.8180   93.7958 Au      1  UNL1        0.0000
      8 AU         16.6849    5.2558   99.3356 Au      1  UNL1        0.0000
      9 AU         15.6001   12.9134  102.5989 Au      1  UNL1        0.0000
     10 AU         11.0726   11.2319  102.9655 Au      1  UNL1        0.0000
     11 AU          9.6130    8.3965  102.7285 Au      1  UNL1        0.0000
     12 S          11.6261    9.1257  103.7242 S.3     1  UNL1        0.0000
     13 S          15.0188    3.2747   99.7794 S.3     1  UNL1        0.0000
     14 S          17.3402    4.4631   96.9499 S.3     1  UNL1        0.0000
     15 S          10.0760    6.9191  100.9659 S.3     1  UNL1        0.0000
     16 S          13.9390    6.6057   95.8587 S.3     1  UNL1        0.0000
     17 S          13.2445   12.5586  100.7808 S.3     2  UNL2        0.0000
     18 S          14.8454   10.7339  104.1740 S.3     1  UNL1        0.0000
     19 P          14.9909    8.7208   91.6278 P.3     1  UNL1        0.0000
     20 P           6.3192    7.9630  102.7818 P.3     3  UNL3        0.0000
     21 C          11.3453    8.8583  105.6449 C.3     1  UNL1        0.0000
     22 C          10.4613   10.0099  106.1478 C.3     1  UNL1        0.0000
     23 H           9.4706   10.0140  105.7372 H       1  UNL1        0.0000
     24 H          10.9262   10.8950  105.7252 H       1  UNL1        0.0000
     25 C          12.7206    9.0537  106.3172 C.3     1  UNL1        0.0000
     26 H          13.1256   10.0273  106.0075 H       1  UNL1        0.0000
     27 H          13.3985    8.2432  105.9763 H       1  UNL1        0.0000
     28 C          10.8604    7.4740  106.2600 C.3     1  UNL1        0.0000
     29 H          11.5530    6.6516  105.9945 H       1  UNL1        0.0000
     30 H           9.9325    7.0832  105.9923 H       1  UNL1        0.0000
     31 C          10.3344   10.0538  107.6908 C.3     1  UNL1        0.0000
     32 H           9.6772   10.8930  108.0021 H       1  UNL1        0.0000
     33 C          11.7304   10.2464  108.3055 C.3     1  UNL1        0.0000
     34 H          12.1643   11.2078  107.9565 H       1  UNL1        0.0000
     35 H          11.6611   10.2903  109.4151 H       1  UNL1        0.0000
     36 C          12.6306    9.0742  107.8713 C.3     1  UNL1        0.0000
     37 H          13.6451    9.2082  108.2932 H       1  UNL1        0.0000
     38 C          12.0362    7.7609  108.4151 C.3     1  UNL1        0.0000
     39 H          12.6751    6.8943  108.1425 H       1  UNL1        0.0000
     40 H          11.9530    7.7905  109.5242 H       1  UNL1        0.0000
     41 C          10.6601    7.5611  107.7993 C.3     1  UNL1        0.0000
     42 H          10.2194    6.6145  108.1930 H       1  UNL1        0.0000
     43 C           9.7219    8.7363  108.1956 C.3     1  UNL1        0.0000
     44 H           8.6982    8.6051  107.7772 H       1  UNL1        0.0000
     45 H           9.6084    8.7839  109.3049 H       1  UNL1        0.0000
     46 C          14.0284    1.7982   99.9532 C.3     1  UNL1        0.0000
     47 C          14.5555    0.9079   98.8289 C.3     1  UNL1        0.0000
     48 H          15.5888    0.5743   99.0719 H       1  UNL1        0.0000
     49 H          14.5920    1.5083   97.8942 H       1  UNL1        0.0000
     50 C          14.1128    1.1222  101.3361 C.3     1  UNL1        0.0000
     51 H          13.6559    1.7371  102.1448 H       1  UNL1        0.0000
     52 H          15.1395    0.8146  101.6174 H       1  UNL1        0.0000
     53 C          12.5755    2.2504   99.6500 C.3     1  UNL1        0.0000
     54 H          12.5800    2.9204   98.7624 H       1  UNL1        0.0000
     55 H          12.1668    2.8583  100.4916 H       1  UNL1        0.0000
     56 C          13.6349   -0.2670   98.5506 C.3     1  UNL1        0.0000
     57 H          -0.4737   25.2520   97.3127 H       4  UNK4        0.0000
     58 C          -1.0682   24.7204   99.8765 C.3     2  UNL2        0.0000
     59 H          -1.7486   23.8948   99.5777 H       2  UNL2        0.0000
     60 H          -0.0736   24.3142  100.1501 H       2  UNL2        0.0000
     61 C          -1.6596   25.4922  101.0375 C.3     2  UNL2        0.0000
     62 H          -1.8660   24.8037  101.8828 H       2  UNL2        0.0000
     63 C          11.3806    0.1723  100.5014 C.3     1  UNL1        0.0000
     64 H          10.9431    0.7552  101.3375 H       1  UNL1        0.0000
     65 H          -4.2012   25.1215  100.1609 H       5  UNK5        0.0000
     66 C          11.6466    1.0765   99.3057 C.3     1  UNL1        0.0000
     67 H          10.6731    1.4821   98.9763 H       1  UNL1        0.0000
     68 C          12.2535    0.2644   98.1578 C.3     1  UNL1        0.0000
     69 H          12.3638    0.9165   97.2617 H       1  UNL1        0.0000
     70 H          -3.0320   25.3979   97.8265 H       6  UNK6        0.0000
     71 C          17.7415    2.9995   95.8120 C.3     1  UNL1        0.0000
     72 C          17.7873    3.4536   94.3203 C.3     1  UNL1        0.0000
     73 H          18.6564    4.1288   94.1489 H       1  UNL1        0.0000
     74 H          16.8693    4.0180   94.0642 H       1  UNL1        0.0000
     75 C          19.0868    2.2390   96.0868 C.3     1  UNL1        0.0000
     76 H          19.1237    1.8768   97.1363 H       1  UNL1        0.0000
     77 H          19.9656    2.9011   95.9234 H       1  UNL1        0.0000
     78 C          16.5860    2.0026   96.0128 C.3     1  UNL1        0.0000
     79 H          15.6181    2.5084   95.8446 H       1  UNL1        0.0000
     80 H          16.6217    1.6432   97.0601 H       1  UNL1        0.0000
     81 C          17.8985    2.2211   93.3752 C.3     1  UNL1        0.0000
     82 H          17.9065    2.5430   92.3139 H       1  UNL1        0.0000
     83 C          19.2000    1.4456   93.6622 C.3     1  UNL1        0.0000
     84 H          20.0844    2.0833   93.4511 H       1  UNL1        0.0000
     85 H          19.2662    0.5561   92.9899 H       1  UNL1        0.0000
     86 C          19.2047    0.9998   95.1371 C.3     1  UNL1        0.0000
     87 H          20.1413    0.4342   95.3383 H       1  UNL1        0.0000
     88 C          18.0098    0.0569   95.3606 C.3     1  UNL1        0.0000
     89 H           3.2044   24.7490   94.4028 H       7  UNK7        0.0000
     90 H           3.1638   25.5185   96.6538 H       8  UNK8        0.0000
     91 C          16.6979    0.8003   95.0650 C.3     1  UNL1        0.0000
     92 H          15.8391    0.1171   95.2371 H       1  UNL1        0.0000
     93 C          16.6898    1.2895   93.6041 C.3     1  UNL1        0.0000
     94 H          16.7394    0.4177   92.9145 H       1  UNL1        0.0000
     95 H          15.7459    1.8360   93.3872 H       1  UNL1        0.0000
     96 C           8.8628    5.7902  100.2986 C.3     1  UNL1        0.0000
     97 C           9.6702    4.8865   99.3628 C.3     1  UNL1        0.0000
     98 H          10.5383    4.4623   99.9106 H       1  UNL1        0.0000
     99 H          10.0664    5.4883   98.5138 H       1  UNL1        0.0000
    100 C           7.6786    6.4155   99.5138 C.3     1  UNL1        0.0000
    101 H           8.0400    7.0222   98.6556 H       1  UNL1        0.0000
    102 H           7.0769    7.0670  100.1750 H       1  UNL1        0.0000
    103 C           8.3141    4.9882  101.4928 C.3     1  UNL1        0.0000
    104 H           9.1490    4.5684  102.0935 H       1  UNL1        0.0000
    105 H           7.7310    5.6545  102.1584 H       1  UNL1        0.0000
    106 C           8.7786    3.7562   98.8540 C.3     1  UNL1        0.0000
    107 H           9.3758    3.1132   98.1828 H       1  UNL1        0.0000
    108 C           7.5954    4.3556   98.0672 C.3     1  UNL1        0.0000
    109 H           7.9742    4.9454   97.2044 H       1  UNL1        0.0000
    110 H           6.9620    3.5349   97.6707 H       1  UNL1        0.0000
    111 C           6.7699    5.2728   98.9936 C.3     1  UNL1        0.0000
    112 H           5.9118    5.6985   98.4275 H       1  UNL1        0.0000
    113 C           6.2374    4.4416  100.1853 C.3     1  UNL1        0.0000
    114 H           5.6237    5.0764  100.8515 H       1  UNL1        0.0000
    115 H           5.5878    3.6177   99.8192 H       1  UNL1        0.0000
    116 C           7.4202    3.8552  100.9827 C.3     1  UNL1        0.0000
    117 H           7.0378    3.2815  101.8541 H       1  UNL1        0.0000
    118 C           8.2615    2.9437  100.0670 C.3     1  UNL1        0.0000
    119 H           9.1201    2.5368  100.6477 H       1  UNL1        0.0000
    120 H           7.6450    2.0926   99.7185 H       1  UNL1        0.0000
    121 C          12.8752    5.3182   95.0536 C.3     1  UNL1        0.0000
    122 C          13.6968    4.4237   94.0837 C.3     1  UNL1        0.0000
    123 H          14.5620    3.9885   94.6120 H       1  UNL1        0.0000
    124 H          14.0877    5.0262   93.2374 H       1  UNL1        0.0000
    125 C          11.6885    5.9289   94.2560 C.3     1  UNL1        0.0000
    126 H          12.0679    6.5496   93.4135 H       1  UNL1        0.0000
    127 H          11.0778    6.5841   94.9126 H       1  UNL1        0.0000
    128 C          12.3187    4.4453   96.1958 C.3     1  UNL1        0.0000
    129 H          11.7284    5.0786   96.8908 H       1  UNL1        0.0000
    130 H          13.1640    4.0031   96.7663 H       1  UNL1        0.0000
    131 C          12.8080    3.2825   93.5244 C.3     1  UNL1        0.0000
    132 H          13.4037    2.6361   92.8427 H       1  UNL1        0.0000
    133 C          11.6218    3.8869   92.7441 C.3     1  UNL1        0.0000
    134 H          11.9964    4.4763   91.8794 H       1  UNL1        0.0000
    135 H          10.9809    3.0707   92.3377 H       1  UNL1        0.0000
    136 C          10.7952    4.7900   93.6877 C.3     1  UNL1        0.0000
    137 H           9.9429    5.2249   93.1207 H       1  UNL1        0.0000
    138 C          10.2502    3.9364   94.8531 C.3     1  UNL1        0.0000
    139 H           9.6381    4.5713   95.5276 H       1  UNL1        0.0000
    140 H           9.5937    3.1270   94.4633 H       1  UNL1        0.0000
    141 C          11.4301    3.3203   95.6339 C.3     1  UNL1        0.0000
    142 H          11.0367    2.7123   96.4737 H       1  UNL1        0.0000
    143 C          12.2696    2.4291   94.6928 C.3     1  UNL1        0.0000
    144 H          11.6420    1.5966   94.3043 H       1  UNL1        0.0000
    145 H          13.1208    1.9778   95.2477 H       1  UNL1        0.0000
    146 C          16.1757    7.5991   90.8846 C.ar    1  UNL1        0.0000
    147 C          16.8350    7.9566   89.7009 C.ar    1  UNL1        0.0000
    148 H          16.6257    8.9045   89.2229 H       1  UNL1        0.0000
    149 C          17.7804    7.0934   89.1355 C.ar    1  UNL1        0.0000
    150 H          18.2957    7.3747   88.2265 H       1  UNL1        0.0000
    151 C          18.0645    5.8691   89.7464 C.ar    1  UNL1        0.0000
    152 H          18.7979    5.2019   89.3112 H       1  UNL1        0.0000
    153 C          17.4026    5.5078   90.9221 C.ar    1  UNL1        0.0000
    154 H          17.6229    4.5632   91.3911 H       1  UNL1        0.0000
    155 C          16.4624    6.3701   91.4940 C.ar    1  UNL1        0.0000
    156 H          15.9651    6.0798   92.4085 H       1  UNL1        0.0000
    157 C           5.1117    8.9222  100.6788 C.3     3  UNL3        0.0000
    158 C           7.4132    9.8204   98.6817 C.3     3  UNL3        0.0000
    159 H           6.6928   11.6219   99.6935 H       3  UNL3        0.0000
    160 C           3.6326    9.5867   98.3302 C.3     3  UNL3        0.0000
    161 H           4.5087    8.9693   98.0155 H       3  UNL3        0.0000
    162 C           2.6058    8.6703   99.0435 C.3     3  UNL3        0.0000
    163 H           2.3168    7.9894   98.2175 H       3  UNL3        0.0000
    164 C           3.1068    7.6569  100.0417 C.2     3  UNL3        0.0000
    165 H           2.5462    6.7368  100.1905 H       3  UNL3        0.0000
    166 C           4.2173    7.7429  100.7313 C.2     3  UNL3        0.0000
    167 H           4.4789    6.8875  101.3321 H       3  UNL3        0.0000
    168 C           6.7796   10.2444  101.6789 C.3     3  UNL3        0.0000
    169 C           6.6829   11.5875  104.3126 C.3     9  UNL9        0.0000
    170 H           7.9528   12.9449  104.7122 H       9  UNL9        0.0000
    171 C           6.6942   14.1043  103.5425 C.3     9  UNL9        0.0000
    172 H           7.4580   14.8842  103.7714 H       9  UNL9        0.0000
    173 C           5.4586   14.8110  103.9593 C.2     9  UNL9        0.0000
    174 H           5.4756   15.4187  104.8610 H       9  UNL9        0.0000
    175 C           4.3494   14.7339  103.2404 C.2     9  UNL9        0.0000
    176 H           4.3152   14.1332  102.3410 H       9  UNL9        0.0000
    177 C           4.3400   11.6061  102.9157 C.3     3  UNL3        0.0000
    178 H           2.6850   10.6786  101.2093 H       3  UNL3        0.0000
    179 C           5.1531    8.6852  105.1767 C.3     3  UNL3        0.0000
    180 C           8.3142    8.2117  104.8227 C.3     1  UNL1        0.0000
    181 H           7.2860    6.5306  104.9840 H       1  UNL1        0.0000
    182 C           5.6745    6.3073  106.6724 C.3     3  UNL3        0.0000
    183 H           6.6629    6.1752  107.1767 H       3  UNL3        0.0000
    184 C           4.6511    6.9056  107.5808 C.2     3  UNL3        0.0000
    185 H           4.5088    6.4332  108.5422 H       3  UNL3        0.0000
    186 C           3.9122    7.9984  107.2923 C.2     3  UNL3        0.0000
    187 H           3.2005    8.3275  108.0364 H       3  UNL3        0.0000
    188 C           3.9161    8.8301  106.0341 C.3     3  UNL3        0.0000
    189 H           3.8657    9.9082  106.2965 H       3  UNL3        0.0000
    190 C           7.5417   11.2879   99.0555 C.3     3  UNL3        0.0000
    191 H           7.6172    9.1712   99.5572 H       3  UNL3        0.0000
    192 C           4.1889   10.8691   98.9849 C.3     3  UNL3        0.0000
    193 H           4.8296   11.3768   98.2371 H       3  UNL3        0.0000
    194 C           3.2645   11.8812   99.5916 C.2     3  UNL3        0.0000
    195 H           3.2089   12.8741   99.1588 H       3  UNL3        0.0000
    196 C           2.6034   11.6399  100.7180 C.2     3  UNL3        0.0000
    197 H           2.0298   12.4265  101.2000 H       3  UNL3        0.0000
    198 C           4.5383   10.1029  102.9025 C.3     3  UNL3        0.0000
    199 H           3.8187   11.8961  103.8647 H       3  UNL3        0.0000
    200 C           5.5931    9.4201  101.9976 C.3     3  UNL3        0.0000
    201 C           7.2381   10.8274  105.4996 C.3     9  UNL9        0.0000
    202 C           6.5533   10.6666  106.8261 C.2     9  UNL9        0.0000
    203 H           6.3759    9.6317  107.0860 H       9  UNL9        0.0000
    204 C           6.2226   11.5382  107.7990 C.2     9  UNL9        0.0000
    205 H           5.8176   11.0745  108.6856 H       9  UNL9        0.0000
    206 C           6.3381   13.0092  107.9220 C.2     9  UNL9        0.0000
    207 H           6.1519   13.4543  108.8844 H       9  UNL9        0.0000
    208 C           6.6320   13.8300  106.9443 C.2     9  UNL9        0.0000
    209 H           6.7468   14.9059  106.9980 H       9  UNL9        0.0000
    210 C           6.9381   13.0071  104.5355 C.3     9  UNL9        0.0000
    211 H           7.4130   11.3825  103.5148 H       9  UNL9        0.0000
    212 C           5.1433    7.5806  104.1520 C.3     3  UNL3        0.0000
    213 C           8.2323    6.7370  104.5689 C.3     1  UNL1        0.0000
    214 H          10.3748    6.2376  103.4811 H      10  UNK10       0.0000
    215 C           5.2759    5.1112  105.7751 C.3     3  UNL3        0.0000
    216 H           6.0378    4.9070  104.9844 H       3  UNL3        0.0000
    217 C           3.8858    5.1036  105.1698 C.2     3  UNL3        0.0000
    218 H           3.3136    4.2428  105.4643 H       3  UNL3        0.0000
    219 C           3.2727    5.9488  104.3027 C.2     3  UNL3        0.0000
    220 H           2.2704    5.6989  103.9853 H       3  UNL3        0.0000
    221 C           3.7909    7.1889  103.6610 C.3     3  UNL3        0.0000
    222 H           3.0726    8.0378  103.5702 H       3  UNL3        0.0000
    223 C          12.3848   13.9244  103.7047 C.1    11  UNL11       0.0000
    224 C          13.7334   17.6097  105.4714 C.3    12  UNL12       0.0000
    225 H          15.4988   17.2940  107.4438 H      13  UNK13       0.0000
    226 H          13.7091   18.5166  106.0867 H       4  UNK4        0.0000
    227 C          15.5770   15.0438  104.8310 C.3     5  UNK5        0.0000
    228 H          14.8549   15.2567  105.6502 H       5  UNK5        0.0000
    229 H          15.6467   13.9406  104.7664 H       5  UNK5        0.0000
    230 C          12.4479   19.1200  103.1864 C.3    14  UNL14       0.0000
    231 H          11.8469   18.8352  104.0756 H       6  UNK6        0.0000
    232 H          13.3016   18.4171  103.0760 H       6  UNK6        0.0000
    233 C          11.7206   14.6001  102.7893 C.2    11  UNL11       0.0000
    234 H          11.1224   14.0481  102.0888 H      11  UNL11       0.0000
    235 C          11.5275   16.0847  102.8853 C.3    11  UNL11       0.0000
    236 H          10.6679   16.4350  102.2796 H      11  UNL11       0.0000
    237 C          11.5846   15.7332  105.6883 C.3    15  UNL15       0.0000
    238 H           8.6812   14.4070  107.8660 H       8  UNK8        0.0000
    239 H          10.5704   15.7256  106.1422 H       7  UNK7        0.0000
    240 C          11.5579   17.1649  108.1211 C.3    16  UNL16       0.0000
    241 H          12.1213   17.9796  108.6202 H      16  UNL16       0.0000
    242 C           9.8078   13.1042  106.3835 C.3     8  UNK8        0.0000
    243 H          10.7990   12.6924  106.5254 H       8  UNK8        0.0000
    244 H          12.3406   14.0269  107.2910 H      16  UNL16       0.0000
    245 C           9.8168   17.9547  105.8752 C.3    16  UNL16       0.0000
    246 H           8.7845   17.7533  106.2289 H      16  UNL16       0.0000
    247 H          10.0091   17.4522  104.8943 H      16  UNL16       0.0000
    248 C          13.0631   13.3115  104.6442 C.2    11  UNL11       0.0000
    249 H          12.6250   12.5597  105.2896 H      11  UNL11       0.0000
    250 C          12.5471   14.5046  108.2633 C.3    16  UNL16       0.0000
    251 H          13.4481   13.9617  108.6276 H      16  UNL16       0.0000
    252 C           9.5969   13.8677  107.7005 C.3     8  UNK8        0.0000
    253 H           9.7126   13.1234  108.5131 H       8  UNK8        0.0000
    254 H          10.2773   14.6727  107.9009 H       8  UNK8        0.0000
    255 C          12.7363   16.0454  108.2048 C.3    16  UNL16       0.0000
    256 H          13.5682   16.2162  107.5124 H      16  UNL16       0.0000
    257 H          13.1602   16.1919  109.2172 H      16  UNL16       0.0000
    258 C           9.9646   13.7450  105.0024 C.3     8  UNK8        0.0000
    259 H          10.0201   12.9897  104.1788 H       8  UNK8        0.0000
    260 H           9.3458   14.6124  104.6949 H       8  UNK8        0.0000
    261 C          15.0835   15.6398  103.5149 C.3     5  UNK5        0.0000
    262 H          15.2595   16.7216  103.4363 H       5  UNK5        0.0000
    263 H          13.9977   15.6272  103.5212 H       5  UNK5        0.0000
    264 C          10.9489   18.1293  106.9636 C.3    16  UNL16       0.0000
    265 H          10.5114   18.9821  107.5166 H      16  UNL16       0.0000
@<TRIPOS>BOND
     1   150   149    1
     2   149   147   ar
     3   149   151   ar
     4   148   147    1
     5   152   151    1
     6   147   146   ar
     7   151   153   ar
     8   146   155   ar
     9   146    19    1
    10   153   154    1
    11   153   155   ar
    12   155   156    1
    13    19     7    1
    14   134   133    1
    15    82    81    1
    16   135   133    1
    17   133   131    1
    18   133   136    1
    19   132   131    1
    20    94    93    1
    21    85    83    1
    22   137   136    1
    23   124   122    1
    24    81    93    1
    25    81    83    1
    26    81    72    1
    27    95    93    1
    28   126   125    1
    29    84    83    1
    30   131   122    1
    31   131   143    1
    32    93    91    1
    33    83    86    1
    34   136   125    1
    35   136   138    1
    36     7    16    1
    37    74    72    1
    38   122   123    1
    39   122   121    1
    40    73    72    1
    41   125   127    1
    42   125   121    1
    43   144   143    1
    44    72    71    1
    45   140   138    1
    46   143   145    1
    47   143   141    1
    48   138   139    1
    49   138   141    1
    50   121    16    1
    51   121   128    1
    52    91    92    1
    53    91    88    1
    54    91    78    1
    55    86    87    1
    56    86    88    1
    57    86    75    1
    58   141   128    1
    59   141   142    1
    60    71    78    1
    61    71    75    1
    62    71    14    1
    63    79    78    1
    64    16     6    1
    65    16     2    1
    66    77    75    1
    67    78    80    1
    68    75    76    1
    69   128   130    1
    70   128   129    1
    71    14     6    1
    72    14     8    1
    73     6     2    1
    74     6     8    1
    75   109   108    1
    76    69    68    1
    77   110   108    1
    78    49    47    1
    79   161   160    1
    80   108   106    1
    81   108   111    1
    82    68    56    1
    83    68    66    1
    84   107   106    1
    85   163   162    1
    86   193   192    1
    87   160   192    1
    88   160   162    1
    89     2     5    1
    90     2     1    1
    91     2     3    1
    92   112   111    1
    93    99    97    1
    94    56    47    1
    95   101   100    1
    96   158   190    1
    97   158   191    1
    98    54    53    1
    99    47    48    1
   100    47    46    1
   101   106    97    1
   102   106   118    1
   103    67    66    1
   104   192   194    1
   105   111   100    1
   106   111   113    1
   107   162   164    1
   108   190   159    1
   109   195   194    1
   110    66    53    1
   111    66    63    1
   112     8    13    1
   113     8     5    1
   114    97    98    1
   115    97    96    1
   116   100   102    1
   117   100    96    1
   118    59    58    1
   119   194   196    2
   120    53    46    1
   121    53    55    1
   122   120   118    1
   123    13    46    1
   124    13     5    1
   125   115   113    1
   126    58    60    1
   127    58    61    1
   128    46    50    1
   129   164   165    1
   130   164   166    2
   131   118   119    1
   132   118   116    1
   133     5     1    1
   134     5     3    1
   135   113   114    1
   136   113   116    1
   137    96    15    1
   138    96   103    1
   139    63    64    1
   140     1     3    1
   141     1     4    1
   142   157   166    1
   143   157   200    1
   144   196   197    1
   145   196   178    1
   146     3    15    1
   147     3     4    1
   148   166   167    1
   149    15    11    1
   150   116   103    1
   151   116   117    1
   152    61    62    1
   153    50    52    1
   154    50    51    1
   155   103   104    1
   156   103   105    1
   157   168   200    1
   158   200    20    1
   159   200   198    1
   160     4    10    1
   161     4    12    1
   162     4    18    1
   163   234   233    1
   164   236   235    1
   165   176   175    1
   166     9    18    1
   167    11    12    1
   168    11   180    1
   169    20   212    1
   170   233   235    1
   171   233   223    2
   172   198   177    1
   173   177   199    1
   174    10    12    1
   175   232   230    1
   176   230   231    1
   177   175   173    2
   178   262   261    1
   179   211   169    1
   180   261   263    1
   181   261   227    1
   182   171   172    1
   183   171   173    1
   184   171   210    1
   185   222   221    1
   186   221   212    1
   187   221   219    1
   188   223   248    2
   189    12    21    1
   190   173   174    1
   191   220   219    1
   192   212   179    1
   193   259   258    1
   194   219   217    2
   195   169   210    1
   196   169   201    1
   197   210   170    1
   198   213   180    1
   199   213   181    1
   200   248   249    1
   201   260   258    1
   202   229   227    1
   203   227   228    1
   204   247   245    1
   205   216   215    1
   206   258   242    1
   207   217   218    1
   208   217   215    1
   209   179   188    1
   210   224   226    1
   211   201   202    1
   212    21    22    1
   213    21    28    1
   214    21    25    1
   215   237   239    1
   216    24    22    1
   217    23    22    1
   218   215   182    1
   219   245   246    1
   220   245   264    1
   221    27    25    1
   222    30    28    1
   223    29    28    1
   224    26    25    1
   225   188   189    1
   226   188   186    1
   227    22    31    1
   228    28    41    1
   229    25    36    1
   230   242   243    1
   231   242   252    1
   232   182   183    1
   233   182   184    1
   234   202   203    1
   235   202   204    2
   236   208   209    1
   237   208   206    2
   238   264   265    1
   239   264   240    1
   240   244   250    1
   241   186   184    2
   242   186   187    1
   243   256   255    1
   244   184   185    1
   245    31    32    1
   246    31    43    1
   247    31    33    1
   248   252   238    1
   249   252   254    1
   250   252   253    1
   251    44    43    1
   252   204   206    1
   253   204   205    1
   254    41    42    1
   255    41    43    1
   256    41    38    1
   257    36    37    1
   258    36    33    1
   259    36    38    1
   260   206   207    1
   261    34    33    1
   262   240   255    1
   263   240   241    1
   264    39    38    1
   265    43    45    1
   266   255   250    1
   267   255   257    1
   268   250   251    1
   269    33    35    1
   270    38    40    1
